LAMMPS (2 Aug 2023 - Update 1)
# some default settings
echo log
units metal
newton on
boundary p p p
atom_style atomic
neighbor 1.0 bin
neigh_modify every 1 delay 5 check yes
thermo 100

variable temperature equal 600
variable nsteps equal 1000000
variable nframes equal 50

# get number of types, not aware of a way to do this with LAMMPS natively

shell ./get_num_types.py inputs/FeAl/masses.in > atom_types_count_FeAl
variable ntypes file atom_types_count_FeAl
shell rm atom_types_count_FeAl

variable nswaps equal 25

# initialize lattice from inputs folder
include inputs/FeAl/lattice.in
lattice bcc 3.5 orient x 1 0 0 orient y 0 1 0 orient z 0 0 1
Lattice spacing in x,y,z = 3.5 3.5 3.5
region box block -4 4 -4 4 -4 4
create_box 2 box
Created orthogonal box = (-14 -14 -14) to (14 14 14)
create_atoms 1 box
Created 1024 atoms

# initialize some more properties from input folder
include inputs/FeAl/masses.in
mass 1 55.845
mass 2 26.980
include inputs/FeAl/potential.in
pair_style meam
pair_coeff * * library_FeAl.meam Fe Al FeAl.meam Fe Al
include inputs/FeAl/composition.in
#set type 1 type/ratio 2 0.50 123456

region right_region block 0 INF INF INF INF INF
group right_group region right_region
512 atoms in group right_group
set group right_group type 2
Setting atom values ...
  512 settings made for type

# relax lattice at 0 K and 0 bar
min_style cg
min_modify dmax 1.0e-2 line quadratic
fix min all box/relax iso 0.0 vmax 0.01
minimize 0.0 1.0e-4 10000 10000
 (src/min.cpp:225)
Step          Temp          E_pair         E_mol          TotEng         Press          Volume
0   0             -3167.664       0             -3167.664      -165893.83      21952
Loop time of 0.561348 on 1024 procs for 445 steps with 1024 atoms

Minimization stats:
  Stopping criterion = force tolerance
  Energy initial, next-to-last, final =
  Force two-norm initial, final = 6818.9162 8.7618402e-05
  Force max component initial, final = 6818.9141 6.6081631e-05
  Final line search alpha, max atom move = 1 6.6081631e-05
  Iterations, force evaluations = 445 804

unfix min

# nvt equilibration
reset_timestep 0
# fix nve_fix all nve
fix thermo_baro_stat all npt temp 600 600 $(100.0 * dt) iso 1.0 1.0 $(1000.0 * dt)
fix thermo_baro_stat all npt temp 600 600 0.10000000000000000555 iso 1.0 1.0 $(1000.0 * dt)
fix thermo_baro_stat all npt temp 600 600 0.10000000000000000555 iso 1.0 1.0 1
fix recenter_fix all recenter INIT INIT INIT
dump equilibration all atom 1000 mc_data/FeAl/equil.dump
run 10000
Step          Temp          E_pair         E_mol          TotEng         Press          Volume
0   0             -3916.6994      0             -3916.6994     -0.0021503114   14191.088
Averages over the last 51 of 101 rows, steps 5000 to 10000:
Temp E_pair E_mol TotEng Press Volume
608.624 -3838.39 0 -3757.91 -717.758 14806.3
Loop time of 7.50573 on 1024 procs for 10000 steps with 1024 atoms

undump equilibration

# run mc-md routine
reset_timestep 0

# do a swap_fix for every atom-atom pair

label fixing_outer_loop
variable i loop 2

   variable jstart equal 1+1
   label fixing_inner_loop
   variable j loop 2 2

      fix swap_fix12 all atom/swap 1000 25 123456 600 types 1 2

      next j
      jump SELF fixing_inner_loop

   next i
   jump SELF fixing_outer_loop
variable i loop 2

   variable jstart equal 2+1
jump SELF fixing_loop_end

# dump and write restart files

variable r equal logfreq3(10,50,1000000)

dump mc_dump all atom 1 mc_data/FeAl/mc.dump
dump_modify mc_dump every v_r
restart v_r mc_data/FeAl/mc.*.restart
run 1000000
Step          Temp          E_pair         E_mol          TotEng         Press          Volume
0   618.31954     -3836.9527      0             -3755.1904      460.75138      14809.911
Averages over the last 5001 of 10001 rows, steps 500000 to 1000000:
Temp E_pair E_mol TotEng Press Volume
600.114 -4066.65 0 -3987.29 6.02758 13615.9
Loop time of 726.184 on 1024 procs for 1000000 steps with 1024 atoms
