LAMMPS (2 Aug 2023 - Update 1)
# some default settings
echo log
units metal
newton on
boundary p p p
atom_style atomic
neighbor 1.0 bin
neigh_modify every 1 delay 5 check yes
thermo 100

variable temperature equal 600
variable nsteps equal 1000000
variable nframes equal 50

# get number of types, not aware of a way to do this with LAMMPS natively

shell ./get_num_types.py inputs/cantor/masses.in > atom_types_count_cantor
variable ntypes file atom_types_count_cantor
shell rm atom_types_count_cantor

variable nswaps equal 5

# initialize lattice from inputs folder
include inputs/cantor/lattice.in
lattice fcc 3.0 orient x 1 0 0 orient y 0 1 0 orient z 0 0 1
Lattice spacing in x,y,z = 3 3 3
region box block 0 7 0 7 0 7
create_box 5 box
Created orthogonal box = (0 0 0) to (21 21 21)
create_atoms 1 box
Created 1372 atoms

# initialize some more properties from input folder
include inputs/cantor/masses.in
mass 1 58.933
mass 2 58.693
mass 3 51.996
mass 4 55.845
mass 5 54.938
include inputs/cantor/potential.in
pair_style meam
pair_coeff * * library_cantor.meam Co Ni Cr Fe Mn CoNiCrFeMn.meam Co Ni Cr Fe Mn
include inputs/cantor/composition.in
set type 1 type/ratio 2 0.20 123456
Setting atom values ...
  274 settings made for type/ratio
set type 1 type/ratio 3 0.25 789012
Setting atom values ...
  274 settings made for type/ratio
set type 1 type/ratio 4 0.333333333333 345678
Setting atom values ...
  274 settings made for type/ratio
set type 1 type/ratio 5 0.50 912345
Setting atom values ...
  275 settings made for type/ratio
set type 1 type/subset 4 1 678912
Setting atom values ...
  1 settings made for type/subset

# relax lattice at 0 K and 0 bar
min_style cg
min_modify dmax 1.0e-2 line quadratic
fix min all box/relax iso 0.0 vmax 0.01
minimize 0.0 1.0e-4 10000 10000
 (src/min.cpp:225)
Step          Temp          E_pair         E_mol          TotEng         Press          Volume
0   0             -1140.9995      0             -1140.9995      3524351.7      9261
Averages over the last 6 of 12 rows, steps 600 to 1060:
Temp E_pair E_mol TotEng Press Volume
0 -5552.7 0 -5552.7 -0.827633 15942.2
Loop time of 2.50993 on 1024 procs for 1060 steps with 1372 atoms

Minimization stats:
  Stopping criterion = force tolerance
  Energy initial, next-to-last, final =
  Force two-norm initial, final = 61115.078 9.8269774e-05
  Force max component initial, final = 61115.028 3.1592191e-05
  Final line search alpha, max atom move = 1 3.1592191e-05
  Iterations, force evaluations = 1060 2082

unfix min

# nvt equilibration
reset_timestep 0
# fix nve_fix all nve
fix thermo_baro_stat all npt temp 600 600 $(100.0 * dt) iso 1.0 1.0 $(1000.0 * dt)
fix thermo_baro_stat all npt temp 600 600 0.10000000000000000555 iso 1.0 1.0 $(1000.0 * dt)
fix thermo_baro_stat all npt temp 600 600 0.10000000000000000555 iso 1.0 1.0 1
fix recenter_fix all recenter INIT INIT INIT
dump equilibration all atom 1000 mc_data/cantor/equil.dump
run 10000
Step          Temp          E_pair         E_mol          TotEng         Press          Volume
0   0             -5552.7005      0             -5552.7005      0.00081410174  15942.187
Averages over the last 51 of 101 rows, steps 5000 to 10000:
Temp E_pair E_mol TotEng Press Volume
480.673 -5466.07 0 -5380.89 63.0051 16221.8
Loop time of 11.9962 on 1024 procs for 10000 steps with 1372 atoms

undump equilibration

# run mc-md routine
reset_timestep 0

# do a swap_fix for every atom-atom pair

label fixing_outer_loop
variable i loop 5

   variable jstart equal 1+1
   label fixing_inner_loop
   variable j loop 2 5

      fix swap_fix12 all atom/swap 1000 5 123456 600 types 1 2

      next j
      jump SELF fixing_inner_loop
   variable j loop 2 5

      fix swap_fix13 all atom/swap 1000 5 123456 600 types 1 3

      next j
      jump SELF fixing_inner_loop
   variable j loop 2 5

      fix swap_fix14 all atom/swap 1000 5 123456 600 types 1 4

      next j
      jump SELF fixing_inner_loop
   variable j loop 2 5

      fix swap_fix15 all atom/swap 1000 5 123456 600 types 1 5

      next j
      jump SELF fixing_inner_loop

   next i
   jump SELF fixing_outer_loop
variable i loop 5

   variable jstart equal 2+1
   label fixing_inner_loop
   variable j loop 3 5

      fix swap_fix23 all atom/swap 1000 5 123456 600 types 2 3

      next j
      jump SELF fixing_inner_loop
   variable j loop 3 5

      fix swap_fix24 all atom/swap 1000 5 123456 600 types 2 4

      next j
      jump SELF fixing_inner_loop
   variable j loop 3 5

      fix swap_fix25 all atom/swap 1000 5 123456 600 types 2 5

      next j
      jump SELF fixing_inner_loop

   next i
   jump SELF fixing_outer_loop
variable i loop 5

   variable jstart equal 3+1
   label fixing_inner_loop
   variable j loop 4 5

      fix swap_fix34 all atom/swap 1000 5 123456 600 types 3 4

      next j
      jump SELF fixing_inner_loop
   variable j loop 4 5

      fix swap_fix35 all atom/swap 1000 5 123456 600 types 3 5

      next j
      jump SELF fixing_inner_loop

   next i
   jump SELF fixing_outer_loop
variable i loop 5

   variable jstart equal 4+1
   label fixing_inner_loop
   variable j loop 5 5

      fix swap_fix45 all atom/swap 1000 5 123456 600 types 4 5

      next j
      jump SELF fixing_inner_loop

   next i
   jump SELF fixing_outer_loop
variable i loop 5

   variable jstart equal 5+1
jump SELF fixing_loop_end

# dump and write restart files

variable r equal logfreq3(10,50,1000000)

dump mc_dump all atom 1 mc_data/cantor/mc.dump
dump_modify mc_dump every v_r
restart v_r mc_data/cantor/mc.*.restart
run 1000000
Step          Temp          E_pair         E_mol          TotEng         Press          Volume
0   629.92194     -5445.2506      0             -5333.6186      1850.5242      16301.498
Averages over the last 5001 of 10001 rows, steps 500000 to 1000000:
Temp E_pair E_mol TotEng Press Volume
600.073 -5481.69 0 -5375.35 8.81651 16346.8
Loop time of 1397.66 on 1024 procs for 1000000 steps with 1372 atoms
